Version 4
SHEET 1 1988 680
WIRE 496 -224 96 -224
WIRE 848 -224 496 -224
WIRE 352 -176 208 -176
WIRE 352 -144 352 -176
WIRE 688 -128 400 -128
WIRE 32 -96 -240 -96
WIRE 432 -80 400 -80
WIRE 208 -48 208 -176
WIRE 352 -32 352 -64
WIRE 432 -32 432 -80
WIRE 496 16 496 -224
WIRE -464 48 -784 48
WIRE -384 48 -464 48
WIRE -160 48 -384 48
WIRE 96 48 96 -224
WIRE 96 48 -160 48
WIRE 208 64 208 32
WIRE 464 64 208 64
WIRE -384 80 -384 48
WIRE -160 80 -160 48
WIRE 688 96 688 -128
WIRE 688 96 608 96
WIRE 208 112 208 64
WIRE -240 128 -240 -96
WIRE -192 128 -240 128
WIRE 464 128 416 128
WIRE 32 160 32 -96
WIRE 32 160 -48 160
WIRE 64 160 32 160
WIRE 144 160 64 160
WIRE -784 176 -784 48
WIRE -384 192 -384 160
WIRE -304 192 -384 192
WIRE -192 192 -304 192
WIRE 496 208 496 176
WIRE 544 208 544 176
WIRE 848 208 848 -224
WIRE 848 208 544 208
WIRE -384 224 -384 192
WIRE -384 224 -624 224
WIRE 208 256 208 208
WIRE -384 272 -384 224
WIRE -384 272 -480 272
WIRE -160 272 -160 240
WIRE -112 272 -112 240
WIRE 96 272 96 48
WIRE 96 272 -112 272
WIRE -784 304 -784 256
WIRE -384 304 -384 272
WIRE -480 352 -480 272
WIRE -448 352 -480 352
WIRE 208 368 208 336
WIRE -624 384 -624 224
WIRE -384 448 -384 400
WIRE -384 448 -496 448
WIRE -624 480 -624 448
WIRE -384 480 -384 448
WIRE -496 528 -496 448
WIRE -448 528 -496 528
WIRE -384 608 -384 576
FLAG 208 368 0
FLAG -384 608 0
FLAG -784 304 0
FLAG -304 192 refOut
FLAG -464 48 vdd
FLAG -624 480 0
FLAG -160 272 0
FLAG 64 160 ref
FLAG 416 128 ref
FLAG 352 -32 0
FLAG 432 -32 0
FLAG 496 208 0
SYMBOL npn 144 112 R0
SYMATTR InstName Q1
SYMATTR Value bc847bdw1t1
SYMBOL res 192 240 R0
SYMATTR InstName R1
SYMATTR Value 4k7
SYMBOL res 192 -64 R0
SYMATTR InstName R2
SYMATTR Value 10
SYMBOL npn -448 304 R0
SYMATTR InstName Q2
SYMATTR Value bc847bdw1t1
SYMBOL res -400 64 R0
SYMATTR InstName R3
SYMATTR Value 30k
SYMBOL voltage -784 160 R0
WINDOW 123 0 0 Left 0
WINDOW 39 0 0 Left 0
SYMATTR InstName V3
SYMATTR Value 1.8
SYMBOL npn -448 480 R0
SYMATTR InstName Q3
SYMATTR Value bc847bdw1t1
SYMBOL cap -640 384 R0
SYMATTR InstName C1
SYMATTR Value 10µ
SYMBOL OpAmps\\LTC2064 -160 160 R0
SYMATTR InstName U2
SYMBOL OpAmps\\LTC2064 496 96 R0
SYMATTR InstName U1
SYMBOL e 352 -160 M0
SYMATTR InstName E1
SYMATTR Value 1
TEXT 1272 -352 Left 2 !**************************************\n*      Model Generated by MODPEX     *\n*Copyright(c) Symmetry Design Systems*\n*         All Rights Reserved        *\n*    UNPUBLISHED LICENSED SOFTWARE   *\n*   Contains Proprietary Information *\n*      Which is The Property of      *\n*     SYMMETRY OR ITS LICENSORS      *\n*Commercial Use or Resale Restricted *\n*   by Symmetry License Agreement    *\n**************************************\n* Model generated on Feb 27, 00\n* MODEL FORMAT: SPICE3\n.MODEL bc847bdw1t1 npn\n+IS=1.25144e-12 BF=3514.94 NF=1.17906 VAF=29.8584\n+IKF=0.00409784 ISE=1.64227e-10 NE=2.41778 BR=100\n+NR=1.21622 VAR=298.584 IKR=0.0409784 ISC=1.64227e-10\n+NC=1.76224 RB=34.1781 IRB=0.1 RBM=0.1\n+RE=0.445455 RC=2.22728 XTB=0.1 XTI=1\n+EG=1.05 CJE=7.44237e-12 VJE=0.416591 MJE=0.277923\n+TF=5.33664e-10 XTF=1.08062 VTF=76.271 ITF=0.207894\n+CJC=4.10576e-12 VJC=0.95 MJC=0.346253 XCJC=0.799987\n+FC=0.8 CJS=0 VJS=0.75 MJS=0.5\n+TR=1e-07 PTF=0 KF=0 AF=1
TEXT -114 464 Left 2 !.op
TEXT -818 632 Left 2 ;.noise V(ref) V3 dec 1k 10m 50
