Version 4
SHEET 1 904 680
WIRE 144 32 16 32
WIRE 144 64 144 32
WIRE 16 128 16 32
WIRE 144 176 144 144
WIRE 256 176 144 176
WIRE 144 192 144 176
WIRE 256 208 256 176
WIRE 16 304 16 208
WIRE 144 304 144 272
WIRE 256 304 256 272
FLAG 256 304 0
FLAG 144 304 0
FLAG 16 304 0
FLAG 256 176 Ref
FLAG 16 32 Vcc
SYMBOL voltage 16 112 R0
WINDOW 3 -407 80 Left 2
WINDOW 123 -407 108 Left 2
WINDOW 39 0 0 Left 0
SYMATTR Value PULSE(0 3.3 1 1p 0 100000)
SYMATTR Value2 AC 1
SYMATTR InstName V1
SYMBOL res 128 48 R0
SYMATTR InstName R1
SYMATTR Value {R1}
SYMBOL res 128 176 R0
SYMATTR InstName R2
SYMATTR Value {R2}
SYMBOL cap 240 208 R0
SYMATTR InstName C1
SYMATTR Value {C}
TEXT -296 24 Left 2 !.param R1=5.6meg
TEXT -296 48 Left 2 !.param R2=1meg
TEXT -296 72 Left 2 !.param C=1u
TEXT 528 24 Left 2 ;.ac dec 100 1m 40
TEXT 528 80 Left 2 !.tran 6
TEXT 528 48 Left 2 ;.noise V(ref) V1 dec 100 10m 10
